
     RDKit          3D

 19 18  0  0  0  0  0  0  0  0999 V2000
   -3.3212   -0.7947    0.3346 C   0  0  0  0  0  0  0  0  0  0  0  0
   -2.3872    0.3356    0.6486 C   0  0  0  0  0  0  0  0  0  0  0  0
   -1.4648    0.7021   -0.5020 C   0  0  0  0  0  0  0  0  0  0  0  0
   -0.1457    0.0360   -0.7120 C   0  0  1  0  0  0  0  0  0  0  0  0
   -0.2080   -1.3597   -0.5890 O   0  0  0  0  0  0  0  0  0  0  0  0
    0.5759   -1.6799    0.0839 H   0  0  0  0  0  0  0  0  0  0  0  0
    1.0524    0.7214   -0.0141 C   0  0  0  0  0  0  0  0  0  0  0  0
    1.0679    1.8980    0.2273 O   0  0  0  0  0  0  0  0  0  0  0  0
    2.1498   -0.0357    0.1618 C   0  0  0  0  0  0  0  0  0  0  0  0
    3.0882   -0.7523    0.2569 C   0  0  0  0  0  0  0  0  0  0  0  0
    3.9176   -1.3503    0.3398 H   0  0  0  0  0  0  0  0  0  0  0  0
   -0.0008    0.0442   -1.7856 H   0  0  0  0  0  0  0  0  0  0  0  0
   -1.9722    0.4633   -1.4383 H   0  0  0  0  0  0  0  0  0  0  0  0
   -1.2525    1.7725   -0.4239 H   0  0  0  0  0  0  0  0  0  0  0  0
   -2.9569    1.2290    0.7660 H   0  0  0  0  0  0  0  0  0  0  0  0
   -1.8141    0.0938    1.5089 H   0  0  0  0  0  0  0  0  0  0  0  0
   -3.8674   -0.5666   -0.5862 H   0  0  0  0  0  0  0  0  0  0  0  0
   -4.0556   -0.8864    1.1178 H   0  0  0  0  0  0  0  0  0  0  0  0
   -2.7598   -1.7131    0.2853 H   0  0  0  0  0  0  0  0  0  0  0  0
  1  2  1  0
  1 17  1  0
  1 18  1  0
  1 19  1  0
  2  3  1  0
  2 15  1  0
  2 16  1  0
  3  4  1  0
  3 13  1  0
  3 14  1  0
  4  5  1  0
  4  7  1  0
  4 12  1  6
  5  6  1  0
  7  8  2  0
  7  9  1  0
  9 10  3  0
 10 11  1  0
M  END